tests/data/state_estimation/current-sensor/global-current-sensor/sym_output.json
{
  "version": "1.0",
  "type": "sym_output",
  "is_batch": false,
  "attributes": {},
  "data": {
    "node": [
      {
        "id": 1,
        "energized": 1,
        "u_pu": 1,
        "u": 10000,
        "u_angle": 2.7755575615628914e-17,
        "p": -152081.2413973829,
        "q": 51572.48277385128
      },
      {
        "id": 2,
        "energized": 1,
        "u_pu": 1.0032295891835012,
        "u": 10032.295891835012,
        "u_angle": 0.0050437703573163505,
        "p": 152910.90226951908,
        "q": -82536.9264361163
      }
    ],
    "line": [
      {
        "id": 3,
        "energized": 1,
        "p_from": -152081.2413973829,
        "q_from": 51572.48277385128,
        "i_from": 9.271537981807233,
        "s_from": 160587.74848794736,
        "p_to": 152910.90226951908,
        "q_to": -82536.9264361163,
        "i_to": 10.0,
        "s_to": 173764.46201222876
      }
    ],
    "source": [
      {
        "id": 4,
        "energized": 1,
        "p": -152081.2413973829,
        "q": 51572.48277385128,
        "i": 9.271537981807233,
        "s": 160587.74848794736,
        "pf": -0.947028916149211
      }
    ],
    "sym_load": [
      {
        "id": 5,
        "energized": 1,
        "p": -152910.90226951908,
        "q": 82536.9264361163,
        "i": 10.0,
        "s": 173764.46201222876,
        "pf": -0.8799895012983604
      }
    ],
    "sym_voltage_sensor": [
      {
        "id": 6,
        "energized": 1,
        "u_residual": 0,
        "u_angle_residual": 0
      }
    ],
    "sym_current_sensor": [
      {
        "id": 7,
        "energized": 1,
        "i_residual": 0,
        "i_angle_residual": 0
      }
    ]
  }
}
